Version 4
SHEET 1 900 704
WIRE 416 48 224 48
WIRE 608 48 480 48
WIRE 224 112 224 48
WIRE 336 112 224 112
WIRE 608 112 608 48
WIRE 608 112 416 112
WIRE 448 208 448 176
WIRE 448 208 352 208
WIRE 736 208 448 208
WIRE 448 288 448 208
WIRE 224 304 224 112
WIRE 224 304 208 304
WIRE 256 304 224 304
WIRE 416 304 256 304
WIRE 608 320 608 112
WIRE 608 320 480 320
WIRE 656 320 608 320
WIRE 352 336 352 288
WIRE 352 336 288 336
WIRE 416 336 352 336
WIRE 736 336 736 208
WIRE 16 352 -64 352
WIRE 208 352 208 304
WIRE -64 368 -64 352
WIRE 352 368 352 336
WIRE 288 384 288 336
WIRE 16 448 -64 448
WIRE 208 480 208 448
WIRE 288 480 288 448
WIRE 288 480 208 480
WIRE 352 480 352 448
WIRE 352 480 288 480
WIRE 448 480 448 352
WIRE 448 480 352 480
WIRE 736 480 736 400
WIRE 736 480 448 480
WIRE 448 560 448 480
FLAG 448 176 Vdd
FLAG 448 560 0
FLAG 816 240 0
FLAG 656 320 Vout
FLAG 256 304 Vin
FLAG 816 160 Vdd
SYMBOL OpAmps/opamp2 448 256 R0
SYMATTR InstName U1
SYMATTR Value OPA355
SYMATTR SpiceModel OPA355
SYMBOL cap 720 336 R0
SYMATTR InstName C1
SYMATTR Value 1”
SYMBOL cap 480 32 R90
WINDOW 0 0 32 VBottom 2
WINDOW 3 25 4 VTop 2
SYMATTR InstName C2
SYMATTR Value .2p
SYMBOL cap 304 448 R180
WINDOW 0 -17 56 Left 2
WINDOW 3 -19 6 Left 2
SYMATTR InstName C3
SYMATTR Value 1”
SYMBOL res 336 352 R0
SYMATTR InstName R1
SYMATTR Value 5k
SYMBOL res 336 192 R0
SYMATTR InstName R2
SYMATTR Value 10k
SYMBOL res 432 96 R90
WINDOW 0 0 56 VBottom 2
WINDOW 3 32 56 VTop 2
SYMATTR InstName R3
SYMATTR Value 10Meg
SYMBOL voltage -64 352 R0
WINDOW 0 -60 23 Left 2
WINDOW 3 -243 139 Left 2
WINDOW 123 -157 167 Left 2
SYMATTR InstName V1
SYMATTR Value SINE(0 2 80K 0 0)
SYMATTR Value2 AC 2 0
SYMBOL voltage 816 144 R0
SYMATTR InstName Vdd1
SYMATTR Value 3.3
SYMBOL Optos/MOC205 112 416 R0
SYMATTR InstName U2
TEXT 552 520 Left 2 !.lib OPA355.LIB
TEXT 552 544 Left 2 !.tran .1M
