Version 4
SHEET 1 1028 680
WIRE 544 80 352 80
WIRE 736 80 608 80
WIRE 352 144 352 80
WIRE 464 144 352 144
WIRE 736 144 736 80
WIRE 736 144 544 144
WIRE 576 240 576 208
WIRE 576 240 480 240
WIRE 864 240 576 240
WIRE 576 320 576 240
WIRE 352 336 352 144
WIRE 384 336 352 336
WIRE 544 336 384 336
WIRE 80 352 -16 352
WIRE 352 352 352 336
WIRE 352 352 272 352
WIRE 736 352 736 144
WIRE 736 352 608 352
WIRE 784 352 736 352
WIRE -16 368 -16 352
WIRE 480 368 480 320
WIRE 480 368 416 368
WIRE 544 368 480 368
WIRE 864 368 864 240
WIRE 480 400 480 368
WIRE 336 416 272 416
WIRE 416 416 416 368
WIRE 32 448 -16 448
WIRE 80 448 32 448
WIRE 336 448 336 416
WIRE 336 448 272 448
WIRE 32 496 32 448
WIRE 336 512 336 448
WIRE 416 512 416 480
WIRE 416 512 336 512
WIRE 480 512 480 480
WIRE 480 512 416 512
WIRE 576 512 576 384
WIRE 576 512 480 512
WIRE 864 512 864 432
WIRE 864 512 576 512
WIRE 576 592 576 512
FLAG 576 208 Vdd
FLAG 576 592 0
FLAG 944 272 0
FLAG 784 352 Vout
FLAG 384 336 Vin
FLAG 944 192 Vdd
FLAG 32 496 0
SYMBOL OpAmps/opamp2 576 288 R0
SYMATTR InstName U1
SYMATTR Value OPA355
SYMATTR SpiceModel OPA355
SYMBOL cap 848 368 R0
SYMATTR InstName C1
SYMATTR Value 1”
SYMBOL cap 608 64 R90
WINDOW 0 0 32 VBottom 2
WINDOW 3 25 4 VTop 2
SYMATTR InstName C2
SYMATTR Value .2p
SYMBOL cap 432 480 R180
WINDOW 0 -17 56 Left 2
WINDOW 3 -19 6 Left 2
SYMATTR InstName C3
SYMATTR Value 1”
SYMBOL res 464 384 R0
SYMATTR InstName R1
SYMATTR Value 5k
SYMBOL res 464 224 R0
SYMATTR InstName R2
SYMATTR Value 10k
SYMBOL res 560 128 R90
WINDOW 0 0 56 VBottom 2
WINDOW 3 32 56 VTop 2
SYMATTR InstName R3
SYMATTR Value 10Meg
SYMBOL voltage 944 176 R0
SYMATTR InstName Vdd1
SYMATTR Value 3.3
SYMBOL voltage -16 352 R0
WINDOW 3 -83 -48 Left 2
WINDOW 123 -83 -26 Left 2
SYMATTR Value SINE(0 2 80k 0)
SYMATTR Value2 AC 2
SYMATTR InstName V1
SYMBOL Optos/MOC205 176 416 R0
SYMATTR InstName U2
TEXT 680 552 Left 2 !.lib OPA355.LIB
TEXT 688 576 Left 2 !.tran .1m
